.papers/SPECTRAL_CLUSTERING_2018/netw_data/case68.m
function mpc = case68
%CASE68

%% MATPOWER Case Format : Version 2
mpc.version = '2';

%%-----  Power Flow Data  -----%%
%% system MVA base
mpc.baseMVA = 100;

%% bus data
%	bus_i	type	Pd	Qd	Gs	Bs	area	Vm	Va	baseKV	zone	Vmax	Vmin
mpc.bus = [
	1	2	0	0	0	0	1	1.045	-8.957	138	1	1.1	0.9;
	2	2	0	0	0	0	1	0.98	-0.9843	138	1	1.1	0.9;
	3	2	0	0	0	0	1	0.983	1.6121	138	1	1.1	0.9;
	4	2	0	0	0	0	1	0.997	1.6675	138	1	1.1	0.9;
	5	2	0	0	0	0	1	1.011	-0.6284	138	1	1.1	0.9;
	6	2	0	0	0	0	1	1.05	3.8417	138	1	1.1	0.9;
	7	2	0	0	0	0	1	1.063	6.03	138	1	1.1	0.9;
	8	2	0	0	0	0	1	1.03	-2.8418	138	1	1.1	0.9;
	9	2	0	0	0	0	1	1.025	2.6516	138	1	1.1	0.9;
	10	2	0	0	0	0	2	1.01	-9.6446	138	1	1.1	0.9;
	11	2	0	0	0	0	2	1	-7.2252	138	1	1.1	0.9;
	12	2	0	0	0	0	2	1.0156	-22.6322	138	1	1.1	0.9;
	13	2	0	0	0	0	2	1.011	-28.6549	138	1	1.1	0.9;
	14	2	0	0	0	0	3	1	10.9616	138	1	1.1	0.9;
	15	2	0	0	0	0	4	1	0.0165	138	1	1.1	0.9;
	16	3	0	0	0	0	5	1	0	138	1	1.1	0.9;
	17	1	6000	300	0	0	2	0.94992	-36.0278	138	1	1.1	0.9;
	18	1	2470	123	0	0	5	1.00233	-5.8055	138	1	1.1	0.9;
	19	1	0	0	0	0	1	0.93198	-4.2641	138	1	1.1	0.9;
	20	1	680	103	0	0	1	0.98061	-5.8752	138	1	1.1	0.9;
	21	1	274	115	0	0	1	0.96024	-7.0547	138	1	1.1	0.9;
	22	1	0	0	0	0	1	0.99368	-1.8018	138	1	1.1	0.9;
	23	1	248	85	0	0	1	0.99611	-2.1614	138	1	1.1	0.9;
	24	1	309	-92	0	0	1	0.9587	-9.8775	138	1	1.1	0.9;
	25	1	224	47	0	0	1	0.9981	-10.0003	138	1	1.1	0.9;
	26	1	139	17	0	0	1	0.98686	-11.0202	138	1	1.1	0.9;
	27	1	281	76	0	0	1	0.96789	-12.8579	138	1	1.1	0.9;
	28	1	206	28	0	0	1	0.98973	-7.4975	138	1	1.1	0.9;
	29	1	284	27	0	0	1	0.99209	-4.5472	138	1	1.1	0.9;
	30	1	0	0	0	0	2	0.97618	-19.7108	138	1	1.1	0.9;
	31	1	0	0	0	0	2	0.98381	-17.4648	138	1	1.1	0.9;
	32	1	0	0	0	0	2	0.96988	-15.2383	138	1	1.1	0.9;
	33	1	112	0	0	0	2	0.97381	-19.7588	138	1	1.1	0.9;
	34	1	0	0	0	0	2	0.98003	-26.1167	138	1	1.1	0.9;
	35	1	0	0	0	0	2	1.04302	-27.0893	138	1	1.1	0.9;
	36	1	102	-19.46	0	0	2	0.96064	-28.8282	138	1	1.1	0.9;
	37	1	0	0	0	0	1	0.95551	-11.7888	138	1	1.1	0.9;
	38	1	0	0	0	0	2	0.98897	-18.7601	138	1	1.1	0.9;
	39	1	267	12.6	0	0	2	0.99154	-39.291	138	1	1.1	0.9;
	40	1	65.63	23.53	0	0	2	1.04422	-13.6407	138	1	1.1	0.9;
	41	1	1000	250	0	0	3	0.99964	9.4267	138	1	1.1	0.9;
	42	1	1150	250	0	0	4	0.99896	-0.8438	138	1	1.1	0.9;
	43	1	0	0	0	0	2	0.97649	-37.9097	138	1	1.1	0.9;
	44	1	267.55	4.84	0	0	2	0.97749	-37.9872	138	1	1.1	0.9;
	45	1	208	21	0	0	2	1.04709	-29.3633	138	1	1.1	0.9;
	46	1	150.7	28.5	0	0	2	0.99031	-20.532	138	1	1.1	0.9;
	47	1	203.12	32.59	0	0	2	1.0184	-19.4983	138	1	1.1	0.9;
	48	1	241.2	2.2	0	0	2	1.03374	-18.3768	138	1	1.1	0.9;
	49	1	164	29	0	0	2	0.99361	-19.8202	138	1	1.1	0.9;
	50	1	100	-147	0	0	2	1.06024	-19.0525	138	1	1.1	0.9;
	51	1	337	-122	0	0	2	1.06337	-27.2888	138	1	1.1	0.9;
	52	1	158	30	0	0	1	0.95454	-12.8342	138	1	1.1	0.9;
	53	1	252.7	118.56	0	0	2	0.98633	-18.938	138	1	1.1	0.9;
	54	1	0	0	0	0	1	0.98571	-11.5378	138	1	1.1	0.9;
	55	1	322	2	0	0	1	0.95712	-13.2187	138	1	1.1	0.9;
	56	1	200	73.6	0	0	1	0.92084	-11.9601	138	1	1.1	0.9;
	57	1	0	0	0	0	1	0.91019	-11.2137	138	1	1.1	0.9;
	58	1	0	0	0	0	1	0.90903	-10.403	138	1	1.1	0.9;
	59	1	234	84	0	0	1	0.90375	-13.3118	138	1	1.1	0.9;
	60	1	208.8	70.8	0	0	1	0.90617	-14.0376	138	1	1.1	0.9;
	61	1	104	125	0	0	2	0.95565	-23.2231	138	1	1.1	0.9;
	62	1	0	0	0	0	1	0.91215	-7.3125	138	1	1.1	0.9;
	63	1	0	0	0	0	1	0.90965	-8.3707	138	1	1.1	0.9;
	64	1	9	88	0	0	1	0.83666	-8.3778	138	1	1.1	0.9;
	65	1	0	0	0	0	1	0.91276	-8.1855	138	1	1.1	0.9;
	66	1	0	0	0	0	1	0.9194	-10.1917	138	1	1.1	0.9;
	67	1	320	153	0	0	1	0.92803	-11.4306	138	1	1.1	0.9;
	68	1	329	32	0	0	1	0.94829	-10.072	138	1	1.1	0.9;
];

%% generator data
%	bus	Pg	Qg	Qmax	Qmin	Vg	mBase	status	Pmax	Pmin	Pc1	Pc2	Qc1min	Qc1max	Qc2min	Qc2max	ramp_agc	ramp_10	ramp_30	ramp_q	apf	mu_Pmax	mu_Pmin	mu_Qmax	mu_Qmin
mpc.gen = [
	1	250	196.005	9900	-9900	1.045	200	1	9999	0	0	0	0	0	0	0	0	0	0	0	0	0.0000	0.0000	0.0000	0.0000;
	2	545	70.011	9900	-9900	0.98	200	1	9999	0	0	0	0	0	0	0	0	0	0	0	0	0.0000	0.0000	0.0000	0.0000;
	3	650	80.783	9900	-9900	0.983	200	1	9999	0	0	0	0	0	0	0	0	0	0	0	0	0.0000	0.0000	0.0000	0.0000;
	4	632	0.269	9900	-9900	0.997	200	1	9999	0	0	0	0	0	0	0	0	0	0	0	0	0.0000	0.0000	0.0000	0.0000;
	5	505	116.574	9900	-9900	1.011	200	1	9999	0	0	0	0	0	0	0	0	0	0	0	0	0.0000	0.0000	0.0000	0.0000;
	6	700	254.487	9900	-9900	1.05	200	1	9999	0	0	0	0	0	0	0	0	0	0	0	0	0.0000	0.0000	0.0000	0.0000;
	7	560	290.833	9900	-9900	1.063	200	1	9999	0	0	0	0	0	0	0	0	0	0	0	0	0.0000	0.0000	0.0000	0.0000;
	8	540	49.077	9900	-9900	1.03	200	1	9999	0	0	0	0	0	0	0	0	0	0	0	0	0.0000	0.0000	0.0000	0.0000;
	9	800	59.808	9900	-9900	1.025	200	1	9999	0	0	0	0	0	0	0	0	0	0	0	0	0.0000	0.0000	0.0000	0.0000;
	10	500	-13.1	9900	-9900	1.01	200	1	9999	0	0	0	0	0	0	0	0	0	0	0	0	0.0000	0.0000	0.0000	0.0000;
	11	1000	8.327	9900	-9900	1	600	1	9999	0	0	0	0	0	0	0	0	0	0	0	0	0.0000	0.0000	0.0000	0.0000;
	12	1350	280.072	9900	-9900	1.0156	200	1	9999	0	0	0	0	0	0	0	0	0	0	0	0	0.0000	0.0000	0.0000	0.0000;
	13	3591	885.025	9900	-9900	1.011	6000	1	9999	0	0	0	0	0	0	0	0	0	0	0	0	0.0000	0.0000	0.0000	0.0000;
	14	1785	47.485	9900	-9900	1	3000	1	9999	0	0	0	0	0	0	0	0	0	0	0	0	0.0000	0.0000	0.0000	0.0000;
	15	1000	76.732	9900	-9900	1	3000	1	9999	0	0	0	0	0	0	0	0	0	0	0	0	0.0000	0.0000	0.0000	0.0000;
	16	3379.568	93.655	9900	-9900	1	6000	1	9999	0	0	0	0	0	0	0	0	0	0	0	0	0.0000	0.0000	0.0000	0.0000;
];

%% branch data
%	fbus	tbus	r	x	b	rateA	rateB	rateC	ratio	angle	status	angmin	angmax
mpc.branch = [
	7	23	0.0005	0.0272	0	0	0	0	0	0	1	-360	360;
	17	36	0.0005	0.0045	0.32	0	0	0	0	0	1	-360	360;
	17	43	0.0005	0.0276	0	0	0	0	0	0	1	-360	360;
	18	42	0.004	0.06	2.25	0	0	0	0	0	1	-360	360;
	18	49	0.0076	0.1141	1.16	0	0	0	0	0	1	-360	360;
	18	50	0.0012	0.0288	2.06	0	0	0	0	0	1	-360	360;
	19	68	0.0016	0.0195	0.304	0	0	0	0	0	1	-360	360;
	21	22	0.0008	0.014	0.2565	0	0	0	0	0	1	-360	360;
	21	68	0.0008	0.0135	0.2548	0	0	0	0	0	1	-360	360;
	22	23	0.0006	0.0096	0.1846	0	0	0	0	0	1	-360	360;
	23	24	0.0022	0.035	0.361	0	0	0	0	0	1	-360	360;
	24	68	0.0003	0.0059	0.068	0	0	0	0	0	1	-360	360;
	25	26	0.0032	0.0323	0.531	0	0	0	0	0	1	-360	360;
	25	54	0.007	0.0086	0.146	0	0	0	0	0	1	-360	360;
	26	27	0.0014	0.0147	0.2396	0	0	0	0	0	1	-360	360;
	26	28	0.0043	0.0474	0.7802	0	0	0	0	0	1	-360	360;
	26	29	0.0057	0.0625	1.029	0	0	0	0	0	1	-360	360;
	27	37	0.0013	0.0173	0.3216	0	0	0	0	0	1	-360	360;
	27	53	0.032	0.32	0.41	0	0	0	0	0	1	-360	360;
	29	28	0.0014	0.0151	0.249	0	0	0	0	0	1	-360	360;
	30	31	0.0013	0.0187	0.333	0	0	0	0	0	1	-360	360;
	30	32	0.0024	0.0288	0.488	0	0	0	0	0	1	-360	360;
	30	53	0.0008	0.0074	0.48	0	0	0	0	0	1	-360	360;
	30	61	0.00095	0.00915	0.58	0	0	0	0	0	1	-360	360;
	31	38	0.0011	0.0147	0.247	0	0	0	0	0	1	-360	360;
	31	53	0.0016	0.0163	0.25	0	0	0	0	0	1	-360	360;
	32	33	0.0008	0.0099	0.168	0	0	0	0	0	1	-360	360;
	33	34	0.0011	0.0157	0.202	0	0	0	0	0	1	-360	360;
	33	38	0.0036	0.0444	0.693	0	0	0	0	0	1	-360	360;
	34	36	0.0033	0.0111	1.45	0	0	0	0	0	1	-360	360;
	35	45	0.0007	0.0175	1.39	0	0	0	0	0	1	-360	360;
	36	61	0.0011	0.0098	0.68	0	0	0	0	0	1	-360	360;
	37	52	0.0007	0.0082	0.1319	0	0	0	0	0	1	-360	360;
	37	68	0.0007	0.0089	0.1342	0	0	0	0	0	1	-360	360;
	38	46	0.0022	0.0284	0.43	0	0	0	0	0	1	-360	360;
	39	44	0	0.0411	0	0	0	0	0	0	1	-360	360;
	39	45	0	0.0839	0	0	0	0	0	0	1	-360	360;
	40	41	0.006	0.084	3.15	0	0	0	0	0	1	-360	360;
	40	48	0.002	0.022	1.28	0	0	0	0	0	1	-360	360;
	41	42	0.004	0.06	2.25	0	0	0	0	0	1	-360	360;
	43	44	0.0001	0.0011	0	0	0	0	0	0	1	-360	360;
	44	45	0.0025	0.073	0	0	0	0	0	0	1	-360	360;
	45	51	0.0004	0.0105	0.72	0	0	0	0	0	1	-360	360;
	46	49	0.0018	0.0274	0.27	0	0	0	0	0	1	-360	360;
	47	48	0.00125	0.0134	0.8	0	0	0	0	0	1	-360	360;
	47	53	0.0013	0.0188	1.31	0	0	0	0	0	1	-360	360;
	50	51	0.0009	0.0221	1.62	0	0	0	0	0	1	-360	360;
	52	55	0.0011	0.0133	0.2138	0	0	0	0	0	1	-360	360;
	53	54	0.0035	0.0411	0.6987	0	0	0	0	0	1	-360	360;
	54	55	0.0013	0.0151	0.2572	0	0	0	0	0	1	-360	360;
	55	56	0.0013	0.0213	0.2214	0	0	0	0	0	1	-360	360;
	56	57	0.0008	0.0128	0.1342	0	0	0	0	0	1	-360	360;
	56	66	0.0008	0.0129	0.1382	0	0	0	0	0	1	-360	360;
	57	58	0.0002	0.0026	0.0434	0	0	0	0	0	1	-360	360;
	57	60	0.0008	0.0112	0.1476	0	0	0	0	0	1	-360	360;
	58	59	0.0006	0.0092	0.113	0	0	0	0	0	1	-360	360;
	58	63	0.0007	0.0082	0.1389	0	0	0	0	0	1	-360	360;
	59	60	0.0004	0.0046	0.078	0	0	0	0	0	1	-360	360;
	60	61	0.0023	0.0363	0.3804	0	0	0	0	0	1	-360	360;
	62	63	0.0004	0.0043	0.0729	0	0	0	0	0	1	-360	360;
	62	65	0.0004	0.0043	0.0729	0	0	0	0	0	1	-360	360;
	65	66	0.0009	0.0101	0.1723	0	0	0	0	0	1	-360	360;
	66	67	0.0018	0.0217	0.366	0	0	0	0	0	1	-360	360;
	67	68	0.0009	0.0094	0.171	0	0	0	0	0	1	-360	360;
	1	54	0	0.0181	0	0	0	0	1.025	0	1	-360	360;
	2	58	0	0.025	0	0	0	0	1.07	0	1	-360	360;
	3	62	0	0.02	0	0	0	0	1.07	0	1	-360	360;
	4	19	0.0007	0.0142	0	0	0	0	1.07	0	1	-360	360;
	5	20	0.0009	0.018	0	0	0	0	1.009	0	1	-360	360;
	6	22	0	0.0143	0	0	0	0	1.025	0	1	-360	360;
	8	25	0.0006	0.0232	0	0	0	0	1.025	0	1	-360	360;
	9	29	0.0008	0.0156	0	0	0	0	1.025	0	1	-360	360;
	10	31	0	0.026	0	0	0	0	1.04	0	1	-360	360;
	11	32	0	0.013	0	0	0	0	1.04	0	1	-360	360;
	12	36	0	0.0075	0	0	0	0	1.04	0	1	-360	360;
	13	17	0	0.0033	0	0	0	0	1.04	0	1	-360	360;
	14	41	0	0.0015	0	0	0	0	1	0	1	-360	360;
	15	42	0	0.0015	0	0	0	0	1	0	1	-360	360;
	16	18	0	0.003	0	0	0	0	1	0	1	-360	360;
	20	19	0.0007	0.0138	0	0	0	0	1.06	0	1	-360	360;
	34	35	0.0001	0.0074	0	0	0	0	0.946	0	1	-360	360;
	63	64	0.0016	0.0435	0	0	0	0	1.06	0	1	-360	360;
	65	64	0.0016	0.0435	0	0	0	0	1.06	0	1	-360	360;
];

%% bus names
mpc.bus_name = {
	'1           ';
	'2           ';
	'3           ';
	'4           ';
	'5           ';
	'6           ';
	'7           ';
	'8           ';
	'9           ';
	'10          ';
	'11          ';
	'12          ';
	'13          ';
	'14          ';
	'15          ';
	'16          ';
	'17          ';
	'18          ';
	'19          ';
	'20          ';
	'21          ';
	'22          ';
	'23          ';
	'24          ';
	'25          ';
	'26          ';
	'27          ';
	'28          ';
	'29          ';
	'30          ';
	'31          ';
	'32          ';
	'33          ';
	'34          ';
	'35          ';
	'36          ';
	'37          ';
	'38          ';
	'39          ';
	'40          ';
	'41          ';
	'42          ';
	'43          ';
	'44          ';
	'45          ';
	'46          ';
	'47          ';
	'48          ';
	'49          ';
	'50          ';
	'51          ';
	'52          ';
	'53          ';
	'54          ';
	'55          ';
	'56          ';
	'57          ';
	'58          ';
	'59          ';
	'60          ';
	'61          ';
	'62          ';
	'63          ';
	'64          ';
	'65          ';
	'66          ';
	'67          ';
	'68          ';
};
